<?xml version="1.0" encoding="UTF-8"?>
<routes xmlns:xsi="http://www.w3.org/2001/XMLSchema-instance" 
       xsi:noNamespaceSchemaLocation="http://sumo.dlr.de/xsd/routes_file.xsd">
    <!-- 定义车辆类型 -->
    <vType id="Auto" accel="7.6" decel="7.6" 
           sigma="0.000" maxSpeed="30.0" length="5.0" color="1,0,0" vClass="passenger" 
           minGap="1.0" tau="1.0" laneChangeModel="LC2013"/>
    
    <vType id="Car" accel="1.0" decel="1.6" sigma="0.1" maxSpeed="13.0" length="4.0" 
           color="0,1,0" vClass="passenger" minGap="1.0" tau="1.0" laneChangeModel="LC2013" 
           lcOpposite="1" lcCooperative="0.1" lcSpeedGain="0.01" lcStrategic="100000" 
           lcKeepRight="100000"/>
    
    <vType id="Car1" accel="1.0" decel="2.0" sigma="0.01" maxSpeed="14.0" length="4.0" 
           color="0,1,1" vClass="passenger" minGap="1.0" tau="1.0" laneChangeModel="LC2013" 
           lcOpposite="1" lcCooperative="0.1" lcSpeedGain="0.03" lcStrategic="100000" 
           lcKeepRight="100000"/>
    
    <vType id="Car2" accel="2.0" decel="3.0" sigma="0.1" maxSpeed="15.0" length="4.0" 
           color="1,1,1" vClass="passenger" minGap="1.0" tau="1.0" laneChangeModel="LC2013" 
           lcOpposite="1" lcCooperative="0.1" lcSpeedGain="0.03" lcStrategic="100000" 
           lcKeepRight="100000"/>
    
    <vType id="Ambulance" accel="5.6" decel="6.0" 
           sigma="0.01" maxSpeed="20.0" length="4.0" color="1,0,1" vClass="passenger" 
           minGap="1.0" tau="1.0" laneChangeModel="LC2013" lcOpposite="1" 
           lcCooperative="0.1" lcSpeedGain="0.05" lcStrategic="100000" 
           lcKeepRight="100000"/>
    
    <vType id="Car3" accel="2.0" decel="3.0" sigma="0.1" maxSpeed="22.0" length="4.0" 
           color="1,1,1" vClass="passenger" minGap="1.0" tau="1.0" laneChangeModel="LC2013" 
           lcOpposite="1" lcCooperative="0.1" lcSpeedGain="0.03" lcStrategic="100000" 
           lcKeepRight="100000"/>
    
    <vType id="Car4" accel="3.0" decel="4.0" sigma="0.01" maxSpeed="24.0" length="4.0" 
           color="1,0,1" vClass="passenger" minGap="1.0" tau="1.0" laneChangeModel="LC2013" 
           lcOpposite="1" lcCooperative="0.1" lcSpeedGain="0.03" lcStrategic="100000" 
           lcKeepRight="100000"/>
    
    <vType id="Car5" accel="1.0" decel="2.0" sigma="0.1" maxSpeed="26.0" length="4.0" 
           color="0,1,0" vClass="passenger" minGap="1.0" tau="1.0" laneChangeModel="LC2013" 
           lcOpposite="1" lcCooperative="0.1" lcSpeedGain="0.03" lcStrategic="100000" 
           lcKeepRight="100000"/>
    
    <vType id="Car6" accel="4.0" decel="5.0" sigma="0.01" maxSpeed="30.0" length="4.0" 
           color="0,1,1" vClass="passenger" minGap="1.0" tau="1.0" laneChangeModel="LC2013" 
           lcOpposite="1" lcCooperative="0.1" lcSpeedGain="0.03" lcStrategic="100000" 
           lcKeepRight="100000"/>
    
    <!-- 定义路线 -->
    <route id="route0" edges="E18"/>
    <route id="navigation" edges="E18"/>
    
    <!-- 注入车辆流 -->
    <flow id="f_0" begin="0.00" from="E18" to="E18" end="3600.00" probability="0.5" 
          departLane="0" arrivalLane="0" type="Car"/>
    
    <flow id="f_1" begin="0.00" from="E18" to="E18" end="3600.00" probability="0.1" 
          departLane="1" arrivalLane="0" type="Car1"/>
    
    <flow id="f_2" begin="0.00" from="E18" to="E18" end="3600.00" probability="0.5" 
          departLane="2" arrivalLane="1" type="Car2"/>
    
    <flow id="f_3" begin="0.00" from="E18" to="E18" end="3600.00" probability="0.05" 
          departLane="2" arrivalLane="2" type="Ambulance"/>
    
    <flow id="f_4" begin="0.00" from="E18" to="E18" end="3600.00" probability="0.5" 
          departLane="1" arrivalLane="1" type="Car"/>
    
    <flow id="f_5" begin="0.00" from="E18" to="E18" end="3600.00" probability="0.1" 
          departLane="2" arrivalLane="1" type="Car1"/>
    
    <flow id="f_6" begin="0.00" from="E18" to="E18" end="3600.00" probability="0.5" 
          departLane="1" arrivalLane="1" type="Car3"/>
    
    <flow id="f_7" begin="0.00" from="E18" to="E18" end="3600.00" probability="0.3" 
          departLane="2" arrivalLane="2" type="Car4"/>
    
    <flow id="f_8" begin="0.00" from="E18" to="E18" end="3600.00" probability="0.1" 
          departLane="0" arrivalLane="2" type="Car5"/>
    
    <flow id="f_9" begin="0.00" from="E18" to="E18" end="3600.00" probability="0.1" 
          departLane="1" arrivalLane="2" type="Car6"/>
    
    <!-- 手动添加车辆 -->
    <vehicle id="Auto_vehicle" color="1,0,0" departLane="2" depart="50" type="Auto" route="navigation"/>
</routes>
